%chk=molecule
#B3LYP/6-31G* SCF=tight Test Pop=MK iop(6/33=2) iop(6/42=6) iop(6/50=1)


0   1
    C   52.4970000000       42.6250000000       31.4590000000     
    C   53.3340000000       43.4610000000       32.4200000000     
    C   54.6070000000       43.9720000000       31.7370000000     
    C   52.8200000000       45.1710000000       33.9890000000     
    C   51.8550000000       46.3360000000       34.2330000000     
    C   50.7060000000       45.9450000000       35.1610000000     
    C   51.9230000000       47.6980000000       32.3010000000     
    C   52.1140000000       47.3580000000       30.8260000000     
    C   53.5930000000       47.2780000000       30.4290000000     
    C   52.2430000000       42.7290000000       29.0960000000     
    C   53.2040000000       43.5140000000       28.2050000000     
    C   50.8140000000       42.6710000000       28.5480000000     
    C   50.7860000000       40.9020000000       26.9770000000     
    C   49.3450000000       40.5500000000       26.6150000000     
    C   51.7540000000       40.5800000000       25.8350000000     
    C   51.6590000000       38.6220000000       24.4930000000     
    C   51.9990000000       38.6210000000       23.0010000000     
    C   50.6160000000       37.5640000000       24.8560000000     
    C   49.1970000000       35.9240000000       23.8950000000     
    C   47.8060000000       36.3980000000       23.5150000000     
    O   52.2010000000       43.3830000000       30.3710000000     
    O   52.1340000000       41.4890000000       31.6310000000     
    O   52.4970000000       44.5610000000       32.8330000000     
    O   53.7350000000       44.8570000000       34.7150000000     
    O   51.2770000000       46.7310000000       32.9790000000     
    O   52.3230000000       48.7330000000       32.7960000000     
    O   51.4720000000       46.1330000000       30.5470000000     
    O   49.8140000000       42.9100000000       29.1840000000     
    O   50.8250000000       42.3140000000       27.2440000000     
    O   52.9140000000       40.9160000000       25.7880000000     
    O   51.0990000000       39.8930000000       24.8770000000     
    O   50.2920000000       37.2400000000       25.9740000000     
    O   50.1010000000       37.0440000000       23.7240000000     
    H   51.9890000000       45.4470000000       31.0080000000     
    H   53.6510000000       42.8790000000       33.2600000000     
    H   54.3420000000       44.5630000000       30.8860000000     
    H   55.2010000000       43.1400000000       31.4220000000     
    H   55.1660000000       44.5690000000       32.4260000000     
    H   52.4150000000       47.1270000000       34.6870000000     
    H   50.1400000000       45.1540000000       34.7150000000     
    H   50.0710000000       46.7920000000       35.3190000000     
    H   51.1010000000       45.6150000000       36.0990000000     
    H   51.6790000000       48.1470000000       30.2490000000     
    H   54.0700000000       46.4980000000       30.9850000000     
    H   54.0710000000       48.2110000000       30.6430000000     
    H   53.6710000000       47.0690000000       29.3820000000     
    H   52.6030000000       41.7230000000       29.1520000000     
    H   52.8710000000       44.5280000000       28.1280000000     
    H   53.2290000000       43.0720000000       27.2310000000     
    H   54.1850000000       43.4920000000       28.6320000000     
    H   51.0890000000       40.3250000000       27.8260000000     
    H   49.0400000000       41.1250000000       25.7660000000     
    H   48.7050000000       40.7700000000       27.4440000000     
    H   49.2800000000       39.5080000000       26.3810000000     
    H   52.5770000000       38.4170000000       25.0030000000     
    H   51.1140000000       38.8220000000       22.4330000000     
    H   52.3900000000       37.6640000000       22.7250000000     
    H   52.7300000000       39.3760000000       22.8010000000     
    H   49.4930000000       35.1150000000       23.2600000000     
    H   49.2140000000       35.5780000000       24.9070000000     
    H   47.8100000000       36.7400000000       22.5010000000     
    H   47.5140000000       37.2000000000       24.1600000000     
    H   47.1130000000       35.5890000000       23.6160000000     




